*SPEF "IEEE 1481-1998"
*DESIGN "control"
*DATE "Sun Apr  5 16:53:01 2015"
*VENDOR "Silicon Perspective, A Cadence Company"
*PROGRAM "Encounter"
*VERSION "09.12-s159_1"
*DESIGN_FLOW "PIN_CAP NONE" "NAME_SCOPE LOCAL"
*DIVIDER /
*DELIMITER :
*BUS_DELIMITER []
*T_UNIT 1 NS
*C_UNIT 1 PF
*R_UNIT 1 OHM
*L_UNIT 1 HENRY

*NAME_MAP

*1 phi1
*2 phi2
*3 ctrl[6]
*4 ctrl[5]
*5 ctrl[4]
*6 ctrl[3]
*7 ctrl[2]
*8 ctrl[1]
*9 ctrl[0]
*10 L[3]
*11 L[2]
*12 L[1]
*13 M[3]
*14 M[2]
*15 M[1]
*16 M[0]
*17 N[3]
*18 N[2]
*19 N[1]
*20 N[0]
*21 ARdEn[3]
*22 ARdEn[2]
*23 ARdEn[1]
*24 ARdEn[0]
*25 BRdEn[3]
*26 BRdEn[2]
*27 BRdEn[1]
*28 BRdEn[0]
*29 FBEn[3]
*30 FBEn[2]
*31 FBEn[1]
*32 FBEn[0]
*33 notFBEn[3]
*34 notFBEn[2]
*35 notFBEn[1]
*36 notFBEn[0]
*37 ASelect
*38 BSelect
*39 DSelect
*40 zeroSelect
*41 shl
*42 notshl
*43 shr
*44 notshr
*45 notphi1_2
*46 baddr\[0\]
*47 aaddr\[0\]
*48 N13
*49 n23
*50 n25
*51 n27
*52 n28
*53 n29
*54 n30
*55 n31
*56 n32
*57 n33
*58 n34
*59 n35
*60 n36
*61 n37
*62 n38
*63 n39
*64 n40
*65 n41
*66 n42
*67 n50
*68 n51
*69 n52
*70 n53
*71 n54
*72 n55
*73 n56
*74 n57
*75 n58
*76 n59
*77 n68
*78 n69
*79 n70
*80 n71
*81 n72
*82 n73
*83 n74
*84 n75
*85 n76
*86 n77
*87 n78
*88 n79
*89 n80
*90 n81
*91 n82
*92 n83
*93 n84
*94 opcode[2]
*95 opcode[1]
*96 opcode[0]
*97 waddr[1]
*98 waddr[0]
*99 WriteEn[3]
*100 WriteEn[2]
*101 WriteEn[1]
*102 WriteEn[0]
*103 phi1_1
*104 phi1_2
*105 phi1_3
*106 notphi1_1
*107 phi2_1
*108 aaddr_reg\[0\]
*109 aaddr_reg\[1\]
*110 opsel_reg\[0\]
*111 opsel_reg\[1\]
*112 baddr_reg\[0\]
*113 baddr_reg\[1\]
*114 U16
*115 U17
*116 U18
*117 U19
*118 U21
*119 U22
*120 U53
*121 U54
*122 U55
*123 U56
*124 U57
*125 U58
*126 U59
*127 U60
*128 U61
*129 U62
*130 opcode_reg\[0\]
*131 opcode_reg\[1\]
*132 shctl_reg\[0\]
*133 shctl_reg\[1\]
*134 waddr_reg\[0\]
*135 waddr_reg\[1\]
*136 opcode_reg\[2\]
*137 U70
*138 U71
*139 U72
*140 U73
*141 U74
*142 U75
*143 U76
*144 U77
*145 U78
*146 U79
*147 U80
*148 U81
*149 U82
*150 U83
*151 U84
*152 U85
*153 U86
*154 U87
*155 U88
*156 U89
*157 U90
*158 U91
*159 U92
*160 U93
*161 U94
*162 U95
*163 U96
*164 U97
*165 U98
*166 U99
*167 U100
*168 U101
*169 U102
*170 U103
*171 U104
*172 U105
*173 U106
*174 U107
*175 U108
*176 U109
*177 U110
*178 U111
*179 U112
*180 U113
*181 U114
*182 U115
*183 U116


*PORTS

*1 I *C 0 23
*2 I *C 0 25
*3 I *C 0 20
*4 I *C 0 17
*5 I *C 0 14
*6 I *C 0 11
*7 I *C 0 9
*8 I *C 0 6
*9 I *C 0 3
*10 O *C 83 0
*11 O *C 87 0
*12 O *C 90 0
*13 O *C 97 0
*14 O *C 101 0
*15 O *C 104 0
*16 O *C 108 0
*17 O *C 117 0
*18 O *C 119 0
*19 O *C 121 0
*20 O *C 123 0
*21 O *C 56 0
*22 O *C 45 0
*23 O *C 33 0
*24 O *C 21 0
*25 O *C 58 0
*26 O *C 47 0
*27 O *C 35 0
*28 O *C 23 0
*99 O *C 53 0
*100 O *C 42 0
*101 O *C 30 0
*102 O *C 19 0
*29 O *C 51 0
*30 O *C 40 0
*31 O *C 28 0
*32 O *C 17 0
*33 O *C 49 0
*34 O *C 38 0
*35 O *C 26 0
*36 O *C 15 0
*37 O *C 72 0
*38 O *C 61 0
*39 O *C 64 0
*40 O *C 75 0
*41 O *C 5 0
*42 O *C 3 0
*43 O *C 7 0
*44 O *C 9 0
*103 O *C 12 0
*104 O *C 78 0
*105 O *C 67 0
*106 O *C 81 0
*45 O *C 69 0
*107 O *C 111 0


*D_NET *1 0.0492872

*CONN
*I *132:G I *C 18 10 *L 0 *D latrp1
*P *103 O *C 12 0 *L 0
*I *150:A I *C 36 21 *L 0 *D invp6
*I *133:G I *C 34 10 *L 0 *D latrp1
*I *134:G I *C 43 46 *L 0 *D latrp1
*I *138:A I *C 32 46 *L 0 *D invp6
*I *148:A I *C 13 35 *L 0 *D invp6
*I *135:G I *C 12 60 *L 0 *D latrp1
*I *146:A I *C 8 60 *L 0 *D invp6
*I *142:A I *C 57 35 *L 0 *D invp6
*P *1 I *C 0 23 *L 0
*I *152:A I *C 62 21 *L 0 *D invp6
*I *119:A I *C 69 21 *L 0 *D invp3
*I *144:A I *C 81 35 *L 0 *D invp6
*P *105 O *C 67 0 *L 0
*P *104 O *C 78 0 *L 0
*I *136:G I *C 83 46 *L 0 *D latrp1
*I *140:A I *C 78 60 *L 0 *D invp6
*I *130:G I *C 99 60 *L 0 *D latrp1
*I *131:G I *C 100 46 *L 0 *D latrp1

*CAP
1 *1:0 0.000275158
2 *1:1 0.000880506
3 *1:2 0.000391273
4 *1:3 0.000605348
5 *1:5 0.000391273
6 *1:6 0.000480511
7 *1:7 0.000361636
8 *1:8 0.000576613
9 *103 0.000361636
10 *1:10 0.000576613
11 *1:11 0.000672715
12 *1:12 0.000192204
13 *1:13 0.000275158
14 *1:14 0.000605348
15 *1:15 0.0020912
16 *1:16 0.000605348
17 *1:17 0.00181604
18 *1:20 0.00105712
19 *1:21 0.000768817
20 *1:22 0.00153763
21 *1:23 0.000495285
22 *1:24 0.000165095
23 *1:25 0.00124933
24 *1:26 0.000165095
25 *1:27 0.00033019
26 *1:28 0.000165095
27 *1:29 0.00198114
28 *1:31 0.000672715
29 *1:33 0.00159592
30 *1:34 0.00132076
31 *1:35 0.000672715
32 *1:36 0.000220126
33 *1:37 0.000110063
34 *1:39 0.000605348
35 *1:40 0.000385221
36 *1:43 0.000384409
37 *1:44 0.000990569
38 *1:45 0.000384409
39 *1:47 0.000605348
40 *1:48 0.000369498
41 *1:49 0.000672715
42 *1:50 0.000369498
43 *1:51 0.000672715
44 *1:52 0.000219662
45 *1:53 0.000495285
46 *1 0.000219662
47 *1:55 0.000495285
48 *152:A 0.000102117
49 *119:A 0.000102117
50 *1:58 0.000165095
51 *1:59 0.00148585
52 *1:60 0.00086492
53 *1:61 0.00132076
54 *1:62 0.00086492
55 *1:63 0.000858055
56 *1:64 0.00126573
57 *1:65 0.000672715
58 *1:66 0.00018534
59 *1:67 0.00231133
60 *1:68 0.000102202
61 *1:69 0.00014151
62 *1:70 0.00115566
63 *1:72 0.000243711
64 *105 0.00014151
65 *1:74 0.000935538
66 *104 0.00014151
67 *1:76 0.000935538
68 *1:77 5.50316e-05
69 *1:78 0.00105712
70 *1:79 0.000275158
71 *1:81 0.00105712
72 *1:82 0.000110063
73 *1:83 0.000825474
74 *1:85 0.000165095
75 *1:86 0.000770443
76 *1:88 0.000275158
77 *1:89 0.000165095

*RES
1 *1:89 *131:G 4
2 *1:88 *1:89 0.2695
3 *1:86 *1:88 0.179667
4 *1:85 *130:G 4
5 *1:83 *1:86 1.078
6 *1:83 *1:85 0.2695
7 *1:82 *140:A 4
8 *1:81 *1:83 4
9 *1:79 *1:82 0.179667
10 *1:78 *1:81 1.97633
11 *1:77 *136:G 4
12 *1:76 *1:79 0.2695
13 *1:76 *1:78 4
14 *1:74 *1:77 0.0898333
15 *1:74 *1:76 1.25767
16 *1:72 *104 0.231
17 *1:70 *1:74 0.179667
18 *1:69 *105 0.231
19 *1:68 *1:72 0.166833
20 *1:67 *144:A 4
21 *1:67 *1:70 1.70683
22 *1:66 *1:69 4
23 *1:65 *1:68 4
24 *1:64 *1:67 2.06617
25 *1:63 *1:66 0.3465
26 *1:63 *1:65 1.25767
27 *1:62 *1:64 4
28 *1:61 *1:63 4
29 *1:60 *1:62 1.617
30 *1:59 *1:61 2.156
31 *1:59 *1:60 4
32 *1:58 *1:59 0.2695
33 *119:A *1:58 4
34 *152:A *119:A 0.166833
35 *1:55 *152:A 4
36 *1:53 *1:55 0.8085
37 *1:52 *1 0.410667
38 *1:51 *1:53 4
39 *1:50 *1:52 4
40 *1:49 *1:51 1.25767
41 *1:48 *1:50 0.603167
42 *1:47 *1:49 4
43 *1:45 *1:48 4
44 *1:44 *1:47 0.988167
45 *1:44 *142:A 4
46 *1:43 *1:45 0.718667
47 *1:40 *1:44 0.628833
48 *1:39 *1:43 4
49 *1:37 *146:A 4
50 *1:36 *135:G 4
51 *1:35 *1:40 4
52 *1:34 *1:39 0.988167
53 *1:34 *148:A 4
54 *1:33 *1:37 0.179667
55 *1:33 *1:36 0.359333
56 *1:31 *1:35 1.25767
57 *1:29 *1:34 1.16783
58 *1:29 *1:33 2.06617
59 *1:28 *138:A 4
60 *1:27 *1:31 4
61 *1:26 *134:G 4
62 *1:25 *1:29 4
63 *1:24 *1:28 0.2695
64 *1:23 *1:27 0.539
65 *1:23 *1:26 0.2695
66 *1:22 *1:25 2.33567
67 *1:22 *1:24 4
68 *1:21 *1:23 4
69 *1:20 *1:22 0.539
70 *1:20 *1:21 1.43733
71 *1:17 *1:20 4
72 *1:16 *133:G 4
73 *1:15 *150:A 4
74 *1:15 *1:17 2.9645
75 *1:14 *1:16 0.988167
76 *1:13 *1:15 0.449167
77 *1:12 *1:14 4
78 *1:11 *1:13 4
79 *1:11 *1:12 0.359333
80 *1:10 *1:11 0.898333
81 *1:8 *1:10 0.179667
82 *1:7 *103 0.590333
83 *1:6 *1:8 0.898333
84 *1:5 *1:7 4
85 *1:3 *1:6 4
86 *1:2 *1:5 0.7315
87 *1:1 *132:G 4
88 *1:1 *1:3 0.988167
89 *1:0 *1:2 4
90 *1:0 *1:1 0.449167
*END

*D_NET *2 0.0446494

*CONN
*I *156:A I *C 113 21 *L 0 *D na2p3
*P *107 O *C 111 0 *L 0
*I *158:A I *C 120 10 *L 0 *D na2p3
*I *178:A I *C 125 11 *L 0 *D na2p1
*I *179:A I *C 130 11 *L 0 *D na2p1
*I *162:C I *C 89 21 *L 0 *D na3p2
*I *157:A I *C 124 21 *L 0 *D na2p3
*I *160:C I *C 97 35 *L 0 *D na3p2
*I *118:B I *C 72 20 *L 0 *D an2p3
*I *161:C I *C 90 21 *L 0 *D na3p2
*I *177:A I *C 130 20 *L 0 *D na2p1
*I *173:A I *C 123 45 *L 0 *D invp1
*I *155:A I *C 47 35 *L 0 *D na3p3
*P *2 I *C 0 25 *L 0
*I *154:A I *C 74 10 *L 0 *D na3p3
*I *176:B I *C 57 10 *L 0 *D na3p3
*I *159:C I *C 132 21 *L 0 *D na3p2
*I *153:C I *C 39 10 *L 0 *D na3p3

*CAP
1 *2:0 9.61022e-05
2 *2:1 0.000576613
3 *2:2 0.000110063
4 *2:3 0.000480511
5 *2:4 0.00115566
6 *2:5 0.000165095
7 *2:6 0.000220126
8 *2:7 0.00143082
9 *2:8 0.000416668
10 *2:9 0.000275158
11 *2:10 0.000275158
12 *107 0.000361636
13 *2:13 0.000480511
14 *2:14 5.50316e-05
15 *2:15 0.000961022
16 *2:16 0.000672715
17 *2:18 0.00163374
18 *2:19 0.00016448
19 *2:20 0.000192204
20 *2:21 0.000770443
21 *2:22 0.00182594
22 *2:23 0.000657919
23 *2:24 0.00016448
24 *2:25 0.00154089
25 *2:26 0.000165095
26 *2:27 0.00172984
27 *2:28 0.000767572
28 *2:30 0.00016448
29 *2:31 0.000660379
30 *2:32 0.000165095
31 *2:33 0.000165095
32 *2:34 0.000385221
33 *2:35 0.00105712
34 *2:36 0.000192204
35 *2:37 0.000274133
36 *2:39 0.00163374
37 *2:40 5.50316e-05
38 *162:C 0.000102117
39 *2:42 0.000770443
40 *2:43 0.000550316
41 *2:44 0.000576613
42 *2:45 0.000192204
43 *2:47 0.00163374
44 *2:50 0.000385221
45 *2:51 0.000550316
46 *2:52 0.000576613
47 *2:53 0.00016448
48 *2:54 0.000165095
49 *161:C 0.000102117
50 *2:56 0.000192204
51 *2:57 0.000384409
52 *2:58 0.000768817
53 *2:59 0.000657919
54 *2:60 0.000165095
55 *2:61 0.000192204
56 *2:62 0.000384409
57 *2:63 0.000715411
58 *2:64 0.000322629
59 *2:65 0.000493439
60 *2:68 0.000385221
61 *2:69 0.000440253
62 *2:70 0.000715411
63 *2:71 0.00313705
64 *2:72 0.000192204
65 *2:73 0.000385221
66 *2:74 0.000605348
67 *2 0.00310273
68 *2:77 0.000192204
69 *2:79 0.000165095
70 *2:80 0.00115323
71 *2:81 0.000274133
72 *2:83 0.00115323
73 *2:84 0.000274133
74 *2:85 0.000165095
75 *2:87 0.000165095

*RES
1 *2:87 *153:C 4
2 *2:85 *2:87 0.2695
3 *2:84 *159:C 4
4 *2:83 *2:85 4
5 *2:81 *2:84 0.449167
6 *2:80 *2:83 2.156
7 *2:79 *176:B 4
8 *2:77 *2:81 4
9 *2:74 *2:80 4
10 *2:74 *2:79 0.2695
11 *2:73 *154:A 4
12 *2:72 *2:77 0.359333
13 *2:71 *2 5.80067
14 *2:70 *155:A 4
15 *2:69 *2:74 0.718667
16 *2:68 *2:73 0.628833
17 *2:65 *2:72 4
18 *2:64 *2:71 0.0641667
19 *2:63 *2:70 1.16783
20 *2:62 *2:69 4
21 *2:61 *2:68 4
22 *2:60 *173:A 4
23 *2:59 *177:A 4
24 *2:59 *2:65 0.8085
25 *2:58 *2:64 0.539
26 *2:58 *2:63 4
27 *2:57 *2:62 0.718667
28 *2:56 *2:61 0.359333
29 *2:54 *2:60 0.2695
30 *2:53 *2:59 0.2695
31 *2:52 *2:58 0.898333
32 *2:51 *2:57 4
33 *2:50 *2:56 4
34 *162:C *161:C 0.166833
35 *2:47 *2:54 4
36 *2:45 *2:53 4
37 *2:44 *2:52 0.179667
38 *2:43 *2:51 0.898333
39 *2:42 *2:50 0.628833
40 *2:42 *118:B 4
41 *2:40 *160:C 4
42 *2:39 *2:47 3.05433
43 *2:37 *157:A 4
44 *2:36 *2:45 0.359333
45 *2:35 *2:44 0.898333
46 *2:35 *2:43 4
47 *2:34 *2:42 0.628833
48 *2:33 *162:C 4
49 *2:32 *2:40 0.0898333
50 *2:31 *2:39 4
51 *2:30 *179:A 4
52 *2:28 *2:37 0.449167
53 *2:28 *2:36 4
54 *2:27 *2:35 1.078
55 *2:27 *2:34 4
56 *2:26 *2:33 0.2695
57 *2:25 *2:32 0.179667
58 *2:25 *2:31 1.078
59 *2:24 *2:30 0.2695
60 *2:23 *178:A 4
61 *2:23 *2:28 0.8085
62 *2:22 *2:27 2.156
63 *2:22 *2:26 4
64 *2:21 *2:25 1.25767
65 *2:20 *2:24 4
66 *2:19 *2:23 0.2695
67 *2:18 *2:22 1.25767
68 *2:18 *2:21 4
69 *2:16 *2:20 0.359333
70 *2:16 *2:19 4
71 *2:15 *2:18 1.79667
72 *2:14 *158:A 4
73 *2:13 *2:16 0.898333
74 *2:10 *2:15 4
75 *2:9 *2:14 0.0898333
76 *2:9 *2:13 4
77 *2:8 *107 0.590333
78 *2:7 *156:A 4
79 *2:7 *2:10 0.449167
80 *2:6 *2:9 0.359333
81 *2:5 *2:8 0.0898333
82 *2:4 *2:7 1.8865
83 *2:3 *2:6 4
84 *2:2 *2:5 0.179667
85 *2:1 *2:4 4
86 *2:1 *2:3 0.898333
87 *2:0 *2:2 4
88 *2:0 *2:1 0.179667
*END

*D_NET *3 0.0161405

*CONN
*P *3 I *C 0 20 *L 0
*I *136:D I *C 88 46 *L 0 *D latrp1

*CAP
1 *3 0.000796275
2 *3:1 0.000830597
3 *3:2 0.00512774
4 *3:3 0.00509341
5 *3:4 0.0012107
6 *3:5 0.00132076
7 *3:6 0.000935538
8 *3:7 0.000825474

*RES
1 *3:7 *136:D 4
2 *3:6 *3:7 1.3475
3 *3:5 *3:6 0.179667
4 *3:4 *3:5 1.97633
5 *3:3 *3:4 4
6 *3:2 *3:3 9.52233
7 *3:1 *3:2 0.0641667
8 *3 *3:1 1.48867
*END

*D_NET *4 0.0246801

*CONN
*I *111:D I *C 107 10 *L 0 *D latsp2
*I *131:D I *C 104 46 *L 0 *D latrp1
*P *4 I *C 0 17 *L 0

*CAP
1 *4:0 0.000605348
2 *4:1 0.000770443
3 *4:2 0.000192204
4 *4:4 0.000165095
5 *4:5 0.000192204
6 *4:6 0.00163374
7 *4:7 0.0022563
8 *4:8 0.00172984
9 *4:9 0.0022563
10 *4:10 0.00317137
11 *4:12 0.00307527
12 *4:13 0.000770443
13 *4:14 0.000770443
14 *4:15 0.00105712
15 *4:16 0.00105712
16 *4:17 0.00033019
17 *4:18 0.00033019
18 *4:19 0.000576613
19 *4:20 0.000768817
20 *4:21 0.000961022
21 *4:22 0.000768817
22 *4:23 0.000400945
23 *4:24 0.000400945
24 *4:25 0.000219662
25 *4 0.000219662

*RES
1 *4:25 *4 0.410667
2 *4:24 *4:25 4
3 *4:23 *4:24 0.6545
4 *4:22 *4:23 4
5 *4:21 *4:22 1.43733
6 *4:20 *4:21 0.359333
7 *4:19 *4:20 1.078
8 *4:18 *4:19 4
9 *4:17 *4:18 0.539
10 *4:16 *4:17 4
11 *4:15 *4:16 1.97633
12 *4:14 *4:15 4
13 *4:13 *4:14 1.25767
14 *4:12 *4:13 4
15 *4:10 *4:12 5.74933
16 *4:9 *131:D 4
17 *4:8 *4:10 0.179667
18 *4:7 *4:9 3.68317
19 *4:6 *4:8 3.05433
20 *4:5 *4:7 4
21 *4:4 *4:6 4
22 *4:2 *4:5 0.359333
23 *4:1 *4:4 0.2695
24 *4:1 *111:D 4
25 *4:0 *4:2 4
26 *4:0 *4:1 0.988167
*END

*D_NET *5 0.0258382

*CONN
*I *110:D I *C 90 10 *L 0 *D latsp2
*I *130:D I *C 103 60 *L 0 *D latrp1
*P *5 I *C 0 14 *L 0

*CAP
1 *5:0 0.000480511
2 *5:1 0.00165095
3 *5:2 0.00115323
4 *5:3 0.00176101
5 *5:4 0.000165095
6 *5:5 0.000672715
7 *5:6 0.00176101
8 *5:7 0.000165095
9 *5:8 0.000660379
10 *5:9 0.00165095
11 *5:11 0.000660379
12 *5:12 0.000480511
13 *5:13 0.00288307
14 *5:14 0.000480511
15 *5:15 0.00297917
16 *5:16 0.000495285
17 *5:17 0.00201815
18 *5:18 0.000495285
19 *5:19 0.00192204
20 *5:21 0.000951261
21 *5:22 0.000951261
22 *5:23 0.000700173
23 *5 0.000700173

*RES
1 *5:23 *5 1.309
2 *5:22 *5:23 4
3 *5:21 *5:22 1.55283
4 *5:19 *5:21 4
5 *5:18 *130:D 4
6 *5:17 *5:19 3.59333
7 *5:16 *5:18 0.8085
8 *5:15 *5:17 0.179667
9 *5:14 *5:16 4
10 *5:13 *5:15 5.39
11 *5:12 *5:14 0.898333
12 *5:11 *5:13 4
13 *5:9 *5:12 4
14 *5:8 *5:11 1.078
15 *5:7 *110:D 4
16 *5:6 *5:9 2.695
17 *5:5 *5:8 4
18 *5:4 *5:7 0.2695
19 *5:3 *5:6 0.179667
20 *5:2 *5:5 1.25767
21 *5:2 *5:4 4
22 *5:1 *5:3 2.695
23 *5:0 *5:2 0.898333
24 *5:0 *5:1 4
*END

*D_NET *6 0.0122866

*CONN
*I *135:D I *C 16 60 *L 0 *D latrp1
*I *113:D I *C 32 60 *L 0 *D latsp2
*P *6 I *C 0 11 *L 0

*CAP
1 *6:0 0.00105712
2 *6:1 0.00105712
3 *6:2 0.000495285
4 *6:3 0.000165095
5 *6:4 0.000165095
6 *6:5 0.00033019
7 *6:6 0.000165095
8 *6:8 0.00105712
9 *6:10 0.00105712
10 *6:11 0.00334121
11 *6:12 0.00334121
12 *6:13 2.74578e-05
13 *6 2.74578e-05

*RES
1 *6:13 *6 0.0513333
2 *6:12 *6:13 4
3 *6:11 *6:12 5.45417
4 *6:10 *6:11 4
5 *6:8 *6:10 1.97633
6 *6:6 *113:D 4
7 *6:5 *6:8 4
8 *6:4 *135:D 4
9 *6:3 *6:6 0.2695
10 *6:2 *6:5 0.539
11 *6:2 *6:4 0.2695
12 *6:1 *6:3 4
13 *6:0 *6:2 4
14 *6:0 *6:1 1.97633
*END

*D_NET *7 0.0166661

*CONN
*I *134:D I *C 47 46 *L 0 *D latrp1
*I *112:D I *C 76 46 *L 0 *D latsp2
*P *7 I *C 0 9 *L 0

*CAP
1 *7:0 0.00201815
2 *7:1 0.00201815
3 *7:2 0.00192611
4 *7:3 0.000165095
5 *7:4 0.000165095
6 *7:5 0.00176101
7 *7:6 0.000165095
8 *7:8 0.00240255
9 *7:10 0.00240255
10 *7:11 0.000990569
11 *7:12 0.000990569
12 *7:13 0.000288307
13 *7:14 0.000322629
14 *7:15 0.000542291
15 *7 0.000507969

*RES
1 *7:15 *7 0.949667
2 *7:14 *7:15 0.0641667
3 *7:13 *7:14 0.539
4 *7:12 *7:13 4
5 *7:11 *7:12 1.617
6 *7:10 *7:11 4
7 *7:8 *7:10 4.49167
8 *7:6 *112:D 4
9 *7:5 *7:8 4
10 *7:4 *134:D 4
11 *7:3 *7:6 0.2695
12 *7:2 *7:5 2.87467
13 *7:2 *7:4 0.2695
14 *7:1 *7:3 4
15 *7:0 *7:2 4
16 *7:0 *7:1 3.773
*END

*D_NET *8 0.00945286

*CONN
*I *109:D I *C 27 35 *L 0 *D latsp2
*P *8 I *C 0 6 *L 0
*I *133:D I *C 30 10 *L 0 *D latrp1

*CAP
1 *8:0 0.00192611
2 *8:1 0.00214623
3 *8:3 0.00172984
4 *8:4 0.000220126
5 *8:5 0.00172984
6 *8:6 0.000192204
7 *8:7 0.000369498
8 *8:8 0.000192204
9 *8:9 0.000369498
10 *8:10 0.000165095
11 *8:11 0.00012356
12 *8:12 0.000165095
13 *8 0.00012356

*RES
1 *8:12 *133:D 4
2 *8:11 *8 0.231
3 *8:10 *8:12 0.2695
4 *8:9 *8:11 4
5 *8:8 *8:10 4
6 *8:7 *8:9 0.603167
7 *8:6 *8:8 0.359333
8 *8:5 *8:7 4
9 *8:4 *8:6 4
10 *8:3 *8:5 3.234
11 *8:1 *8:4 0.359333
12 *8:1 *8:3 4
13 *8:0 *109:D 4
14 *8:0 *8:1 3.14417
*END

*D_NET *9 0.00972048

*CONN
*I *132:D I *C 13 10 *L 0 *D latrp1
*P *9 I *C 0 3 *L 0
*I *108:D I *C 22 46 *L 0 *D latsp2

*CAP
1 *9:0 0.000715411
2 *9:1 0.000288307
3 *9:2 0.0012107
4 *9:3 0.000288307
5 *9:5 0.000495285
6 *9:6 0.00132076
7 *9:7 0.000288307
8 *9:8 0.00132076
9 *9:9 0.000322629
10 *9:10 0.000288307
11 *9:11 0.000638393
12 *9:12 0.000288307
13 *9 0.000604071
14 *9:14 0.000825474
15 *9:15 0.000825474

*RES
1 *9:15 *108:D 4
2 *9:14 *9:15 1.3475
3 *9:12 *9:14 4
4 *9:11 *9 1.12933
5 *9:10 *9:12 0.539
6 *9:9 *9:11 0.0641667
7 *9:8 *9:10 4
8 *9:7 *9:9 0.539
9 *9:6 *9:8 2.156
10 *9:5 *9:7 4
11 *9:3 *9:6 4
12 *9:2 *9:5 0.8085
13 *9:2 *132:D 4
14 *9:1 *9:3 0.539
15 *9:0 *9:2 1.16783
16 *9:0 *9:1 4
*END

*D_NET *10 0.00603505

*CONN
*I *158:NQ O *C 117 11 *L 0 *D na2p3
*P *10 O *C 83 0 *L 0

*CAP
1 *10:1 0.000165095
2 *10:2 0.000165095
3 *10:3 0.00249866
4 *10:4 0.00249866
5 *10:5 0.000102202
6 *10:6 0.000353775
7 *10 0.000251573

*RES
1 *10:6 *10 0.410667
2 *10:5 *10:6 0.166833
3 *10:4 *10:5 4
4 *10:3 *10:4 4.67133
5 *10:2 *10:3 4
6 *10:1 *10:2 0.2695
7 *158:NQ *10:1 4
*END

*D_NET *11 0.00305032

*CONN
*I *162:NQ O *C 88 20 *L 0 *D na3p2
*P *11 O *C 87 0 *L 0

*CAP
1 *11:1 0.000644656
2 *11:2 0.000652518
3 *11:3 0.000880506
4 *11 0.000872644

*RES
1 *11:3 *11 1.4245
2 *11:2 *11:3 0.0128333
3 *11:1 *11:2 1.05233
4 *162:NQ *11:1 4
*END

*D_NET *12 0.00327045

*CONN
*I *161:NQ O *C 92 20 *L 0 *D na3p2
*P *12 O *C 90 0 *L 0

*CAP
1 *12:1 0.000935538
2 *12:2 0.00105346
3 *12:3 0.000699688
4 *12 0.000581763

*RES
1 *12:3 *12 0.949667
2 *12:2 *12:3 0.1925
3 *12:1 *12:2 1.52717
4 *161:NQ *12:1 4
*END

*D_NET *13 0.00506291

*CONN
*I *160:NQ O *C 96 36 *L 0 *D na3p2
*P *13 O *C 97 0 *L 0

*CAP
1 *13:1 0.00159592
2 *13:2 0.00170598
3 *13:3 0.000440253
4 *13:4 0.000353775
5 *13:5 0.000495285
6 *13 0.0004717

*RES
1 *13:5 *13 0.77
2 *13:4 *13:5 0.0385
3 *13:3 *13:4 0.539
4 *13:2 *13:3 0.179667
5 *13:1 *13:2 2.60517
6 *160:NQ *13:1 4
*END

*D_NET *14 0.00605918

*CONN
*I *157:NQ O *C 121 20 *L 0 *D na2p3
*P *14 O *C 101 0 *L 0

*CAP
1 *14:1 0.000495285
2 *14:2 0.000495285
3 *14:3 0.00144153
4 *14:4 0.00144153
5 *14:5 0.000660379
6 *14:6 0.000731134
7 *14:7 0.000432391
8 *14 0.000361636

*RES
1 *14:7 *14 0.590333
2 *14:6 *14:7 0.1155
3 *14:5 *14:6 1.078
4 *14:4 *14:5 4
5 *14:3 *14:4 2.695
6 *14:2 *14:3 4
7 *14:1 *14:2 0.8085
8 *157:NQ *14:1 4
*END

*D_NET *15 0.00390971

*CONN
*I *156:NQ O *C 110 20 *L 0 *D na2p3
*P *15 O *C 104 0 *L 0

*CAP
1 *15:1 0.000605348
2 *15:2 0.000605348
3 *15:3 0.000288307
4 *15:4 0.000288307
5 *15:5 0.000880506
6 *15:6 0.000880506
7 *15:7 0.000149248
8 *15:8 0.000149248
9 *15:9 3.14466e-05
10 *15 3.14466e-05

*RES
1 *15:9 *15 0.0513333
2 *15:8 *15:9 4
3 *15:7 *15:8 0.243833
4 *15:6 *15:7 4
5 *15:5 *15:6 1.43733
6 *15:4 *15:5 4
7 *15:3 *15:4 0.539
8 *15:2 *15:3 4
9 *15:1 *15:2 0.988167
10 *156:NQ *15:1 4
*END

*D_NET *16 0.00733741

*CONN
*I *159:NQ O *C 134 20 *L 0 *D na3p2
*P *16 O *C 108 0 *L 0

*CAP
1 *16:1 0.00137066
2 *16:2 0.00137066
3 *16:3 0.00144153
4 *16:4 0.00144153
5 *16:5 0.00033019
6 *16:6 0.00033019
7 *16:7 0.000494874
8 *16:8 0.000494874
9 *16:9 3.14466e-05
10 *16 3.14466e-05

*RES
1 *16:9 *16 0.0513333
2 *16:8 *16:9 4
3 *16:7 *16:8 0.8085
4 *16:6 *16:7 4
5 *16:5 *16:6 0.539
6 *16:4 *16:5 4
7 *16:3 *16:4 2.695
8 *16:2 *16:3 4
9 *16:1 *16:2 2.24583
10 *159:NQ *16:1 4
*END

*D_NET *17 0.0061218

*CONN
*I *181:NQ O *C 124 38 *L 0 *D na3p1
*P *17 O *C 117 0 *L 0

*CAP
1 *17:1 0.000495285
2 *17:2 0.000495285
3 *17:3 0.000576613
4 *17:4 0.000576613
5 *17:5 0.000220126
6 *17:6 0.000306605
7 *17:7 0.00176887
8 *17 0.0016824

*RES
1 *17:7 *17 2.74633
2 *17:6 *17:7 0.141167
3 *17:5 *17:6 0.359333
4 *17:4 *17:5 4
5 *17:3 *17:4 1.078
6 *17:2 *17:3 4
7 *17:1 *17:2 0.8085
8 *181:NQ *17:1 4
*END

*D_NET *18 0.00237759

*CONN
*I *179:NQ O *C 128 13 *L 0 *D na2p1
*P *18 O *C 119 0 *L 0

*CAP
1 *18:1 0.000274133
2 *18:2 0.000274133
3 *18:3 0.000576613
4 *18:4 0.000576613
5 *18:5 0.000196541
6 *18:6 0.000338051
7 *18 0.00014151

*RES
1 *18:6 *18 0.231
2 *18:5 *18:6 0.320833
3 *18:4 *18:5 4
4 *18:3 *18:4 1.078
5 *18:2 *18:3 4
6 *18:1 *18:2 0.449167
7 *179:NQ *18:1 4
*END

*D_NET *19 0.00157172

*CONN
*I *178:NQ O *C 124 13 *L 0 *D na2p1
*P *19 O *C 121 0 *L 0

*CAP
1 *19:1 0.000385221
2 *19:2 0.000385221
3 *19:3 0.000369192
4 *19:4 0.000369192
5 *19:5 3.14466e-05
6 *19 3.14466e-05

*RES
1 *19:5 *19 0.0513333
2 *19:4 *19:5 4
3 *19:3 *19:4 0.603167
4 *19:2 *19:3 4
5 *19:1 *19:2 0.628833
6 *178:NQ *19:1 4
*END

*D_NET *20 0.00358524

*CONN
*I *177:NQ O *C 128 18 *L 0 *D na2p1
*P *20 O *C 123 0 *L 0

*CAP
1 *20:1 0.00137066
2 *20:2 0.00137066
3 *20:3 0.000288307
4 *20:4 0.000288307
5 *20:5 0.000102202
6 *20:6 0.000133648
7 *20 3.14466e-05

*RES
1 *20:6 *20 0.0513333
2 *20:5 *20:6 0.166833
3 *20:4 *20:5 4
4 *20:3 *20:4 0.539
5 *20:2 *20:3 4
6 *20:1 *20:2 2.24583
7 *177:NQ *20:1 4
*END

*D_NET *21 0.00295598

*CONN
*I *151:NQ O *C 60 20 *L 0 *D no2p2
*P *21 O *C 56 0 *L 0

*CAP
1 *21:1 0.000275158
2 *21:2 0.000345913
3 *21:3 0.00120283
4 *21 0.00113208

*RES
1 *21:3 *21 1.848
2 *21:2 *21:3 0.1155
3 *21:1 *21:2 0.449167
4 *151:NQ *21:1 4
*END

*D_NET *22 0.00311322

*CONN
*I *149:NQ O *C 44 20 *L 0 *D no2p2
*P *22 O *C 45 0 *L 0

*CAP
1 *22:1 0.000825474
2 *22:2 0.000974846
3 *22:3 0.000731134
4 *22 0.000581763

*RES
1 *22:3 *22 0.949667
2 *22:2 *22:3 0.243833
3 *22:1 *22:2 1.3475
4 *149:NQ *22:1 4
*END

*D_NET *23 0.00535478

*CONN
*I *147:NQ O *C 16 20 *L 0 *D no2p2
*P *23 O *C 33 0 *L 0

*CAP
1 *23:1 0.000495285
2 *23:2 0.000495285
3 *23:3 0.00116009
4 *23:4 0.00116009
5 *23:5 0.00102202
6 *23 0.00102202

*RES
1 *23:5 *23 1.66833
2 *23:4 *23:5 4
3 *23:3 *23:4 2.16883
4 *23:2 *23:3 4
5 *23:1 *23:2 0.8085
6 *147:NQ *23:1 4
*END

*D_NET *24 0.00915829

*CONN
*I *145:NQ O *C 9 45 *L 0 *D no2p2
*P *24 O *C 21 0 *L 0

*CAP
1 *24:1 0.00181604
2 *24:2 0.00192611
3 *24:3 0.00033019
4 *24:4 0.000220126
5 *24:5 0.00105712
6 *24:6 0.00105712
7 *24:7 0.000990569
8 *24:8 0.00101415
9 *24:9 0.000385221
10 *24 0.000361636

*RES
1 *24:9 *24 0.590333
2 *24:8 *24:9 0.0385
3 *24:7 *24:8 1.617
4 *24:6 *24:7 4
5 *24:5 *24:6 1.97633
6 *24:4 *24:5 4
7 *24:3 *24:4 0.359333
8 *24:2 *24:3 0.179667
9 *24:1 *24:2 2.9645
10 *145:NQ *24:1 4
*END

*D_NET *25 0.00733638

*CONN
*I *143:NQ O *C 72 36 *L 0 *D no2p2
*P *25 O *C 58 0 *L 0

*CAP
1 *25:1 0.0022563
2 *25:2 0.0022563
3 *25:3 0.00105026
4 *25:4 0.00105026
5 *25:5 0.000361636
6 *25 0.000361636

*RES
1 *25:5 *25 0.590333
2 *25:4 *25:5 4
3 *25:3 *25:4 1.9635
4 *25:2 *25:3 4
5 *25:1 *25:2 3.68317
6 *143:NQ *25:1 4
*END

*D_NET *26 0.00700689

*CONN
*I *141:NQ O *C 60 36 *L 0 *D no2p2
*P *26 O *C 47 0 *L 0

*CAP
1 *26:1 0.000825474
2 *26:2 0.000825474
3 *26:3 0.000480511
4 *26:4 0.000480511
5 *26:5 0.00143082
6 *26:6 0.00143082
7 *26:7 0.000405002
8 *26:8 0.000405002
9 *26:9 0.000361636
10 *26 0.000361636

*RES
1 *26:9 *26 0.590333
2 *26:8 *26:9 4
3 *26:7 *26:8 0.757167
4 *26:6 *26:7 4
5 *26:5 *26:6 2.33567
6 *26:4 *26:5 4
7 *26:3 *26:4 0.898333
8 *26:2 *26:3 4
9 *26:1 *26:2 1.3475
10 *141:NQ *26:1 4
*END

*D_NET *27 0.0101543

*CONN
*I *139:NQ O *C 64 45 *L 0 *D no2p2
*P *27 O *C 35 0 *L 0

*CAP
1 *27:1 0.000385221
2 *27:2 0.000385221
3 *27:3 0.00163374
4 *27:4 0.00163374
5 *27:5 0.00242139
6 *27:6 0.00247642
7 *27:7 0.000636794
8 *27 0.000581763

*RES
1 *27:7 *27 0.949667
2 *27:6 *27:7 0.0898333
3 *27:5 *27:6 3.95267
4 *27:4 *27:5 4
5 *27:3 *27:4 3.05433
6 *27:2 *27:3 4
7 *27:1 *27:2 0.628833
8 *139:NQ *27:1 4
*END

*D_NET *28 0.00851526

*CONN
*I *137:NQ O *C 34 45 *L 0 *D no2p2
*P *28 O *C 23 0 *L 0

*CAP
1 *28:1 0.000495285
2 *28:2 0.000495285
3 *28:3 0.000672715
4 *28:4 0.000672715
5 *28:5 0.00264152
6 *28:6 0.002728
7 *28:7 0.000448115
8 *28 0.000361636

*RES
1 *28:7 *28 0.590333
2 *28:6 *28:7 0.141167
3 *28:5 *28:6 4.312
4 *28:4 *28:5 4
5 *28:3 *28:4 1.25767
6 *28:2 *28:3 4
7 *28:1 *28:2 0.8085
8 *137:NQ *28:1 4
*END

*D_NET *29 0.00242139

*CONN
*I *176:NQ O *C 51 13 *L 0 *D na3p3
*P *29 O *C 51 0 *L 0
*I *114:A I *C 51 21 *L 0 *D invp3

*CAP
1 *29:1 0.000165095
2 *29:2 0.00018868
3 *29:3 0.000770443
4 *29:4 0.000275158
5 *29:5 0.000770443
6 *29 0.000251573

*RES
1 *29:5 *114:A 4
2 *29:4 *29 0.410667
3 *29:3 *29:5 1.25767
4 *29:2 *29:4 0.0385
5 *176:NQ *29:3 4
6 *29:1 *29:2 0.2695
7 *176:NQ *29:1 4
*END

*D_NET *30 0.00640282

*CONN
*I *115:A I *C 47 21 *L 0 *D invp3
*I *155:NQ O *C 39 38 *L 0 *D na3p3
*P *30 O *C 40 0 *L 0

*CAP
1 *30:0 0.0010456
2 *30:1 0.00203617
3 *30:2 0.000583477
4 *30:3 0.000990569
5 *30:5 0.000583477
6 *30:7 0.000581763
7 *30 0.000581763

*RES
1 *30:7 *30 0.949667
2 *30:5 *30:7 4
3 *30:3 *155:NQ 4
4 *30:2 *30:5 1.09083
5 *30:1 *115:A 4
6 *30:1 *30:3 1.617
7 *30:0 *30:2 4
8 *30:0 *30:1 1.70683
*END

*D_NET *31 0.00950253

*CONN
*I *116:A I *C 29 21 *L 0 *D invp3
*I *154:NQ O *C 65 13 *L 0 *D na3p3
*P *31 O *C 28 0 *L 0

*CAP
1 *31:0 0.000220126
2 *31:1 0.000715411
3 *31:2 0.000288307
4 *31:3 0.000495285
5 *31:4 0.00240255
6 *31:5 0.000288307
7 *31:7 0.00240255
8 *31:8 0.000550316
9 *31:9 0.000275158
10 *31:10 0.000550316
11 *31:11 0.000275158
12 *31:12 0.000157882
13 *31:14 0.000157882
14 *31:15 0.000361636
15 *31 0.000361636

*RES
1 *31:15 *31 0.590333
2 *31:14 *31:15 4
3 *31:12 *31:14 0.295167
4 *31:11 *154:NQ 4
5 *31:10 *31:12 4
6 *31:9 *31:11 0.449167
7 *31:8 *31:10 0.898333
8 *31:7 *31:9 4
9 *31:5 *31:8 4
10 *31:4 *31:7 4.49167
11 *31:3 *116:A 4
12 *31:2 *31:5 0.539
13 *31:1 *31:4 4
14 *31:1 *31:3 0.8085
15 *31:0 *31:2 4
16 *31:0 *31:1 0.359333
*END

*D_NET *32 0.00745693

*CONN
*P *32 O *C 17 0 *L 0
*I *153:NQ O *C 37 13 *L 0 *D na3p3
*I *117:A I *C 19 21 *L 0 *D invp3

*CAP
1 *32:0 0.000251573
2 *32:1 0.00153763
3 *32 0.000251573
4 *32:3 0.00140721
5 *32:4 0.000130424
6 *32:5 0.000165095
7 *32:6 0.00033019
8 *32:7 0.000165095
9 *32:8 0.000440253
10 *32:10 0.000440253
11 *32:11 0.00033019
12 *32:12 0.000288307
13 *32:13 0.000288307
14 *32:14 0.000715411
15 *32:15 0.000715411

*RES
1 *32:15 *117:A 4
2 *32:14 *32:15 1.16783
3 *32:13 *32:14 4
4 *32:12 *32:13 0.539
5 *32:11 *32:12 4
6 *32:10 *32:11 0.539
7 *32:8 *32:10 0.179667
8 *32:7 *153:NQ 4
9 *32:6 *32:8 0.539
10 *32:5 *32:7 0.2695
11 *32:4 *32:6 4
12 *32:3 *32:5 4
13 *32:1 *32:4 0.243833
14 *32:1 *32:3 2.63083
15 *32:0 *32 0.410667
16 *32:0 *32:1 4
*END

*D_NET *33 0.00377308

*CONN
*P *33 O *C 49 0 *L 0
*P *99 O *C 53 0 *L 0
*I *114:NQ O *C 50 20 *L 0 *D invp3

*CAP
1 *33:0 0.000314206
2 *33:1 0.000314206
3 *33:2 0.000212265
4 *33:3 3.14466e-05
5 *33:4 0.000204403
6 *33 3.14466e-05
7 *99 3.14466e-05
8 *33:7 0.00132862
9 *33:8 0.00130504

*RES
1 *33:8 *114:NQ 4
2 *33:7 *33:8 2.13033
3 *33:4 *33:7 0.0385
4 *33:3 *99 0.0513333
5 *33:2 *33 0.0513333
6 *33:2 *33:4 0.295167
7 *33:1 *33:3 4
8 *33:0 *33:2 4
9 *33:0 *33:1 0.513333
*END

*D_NET *34 0.0042239

*CONN
*P *100 O *C 42 0 *L 0
*P *34 O *C 38 0 *L 0
*I *115:NQ O *C 46 20 *L 0 *D invp3

*CAP
1 *100 3.14466e-05
2 *34:1 0.00014151
3 *34:2 0.000180818
4 *34:3 0.000314206
5 *34:4 0.000400945
6 *34:5 0.000314206
7 *34:6 0.00033019
8 *34:7 3.14466e-05
9 *34:8 0.000288307
10 *34 3.14466e-05
11 *34:10 0.000288307
12 *34:11 0.000935538
13 *34:12 0.000935538

*RES
1 *34:12 *115:NQ 4
2 *34:11 *34:12 1.52717
3 *34:10 *34:11 4
4 *34:8 *34:10 0.539
5 *34:7 *34 0.0513333
6 *34:6 *34:8 4
7 *34:5 *34:7 4
8 *34:4 *34:6 0.539
9 *34:3 *34:5 0.513333
10 *34:2 *34:4 0.1155
11 *34:1 *34:3 4
12 *34:1 *34:2 0.179667
13 *100 *34:1 0.0513333
*END

*D_NET *35 0.00415043

*CONN
*P *101 O *C 30 0 *L 0
*P *35 O *C 26 0 *L 0
*I *116:NQ O *C 27 20 *L 0 *D invp3

*CAP
1 *101 3.14466e-05
2 *35:1 0.000133648
3 *35:2 0.000542455
4 *35:3 0.000314206
5 *35:4 0.000660379
6 *35:5 0.000314206
7 *35:6 0.00115566
8 *35:7 3.14466e-05
9 *35:8 0.000935538
10 *35 3.14466e-05

*RES
1 *35:8 *116:NQ 4
2 *35:7 *35 0.0513333
3 *35:6 *35:8 1.52717
4 *35:5 *35:7 4
5 *35:4 *35:6 0.359333
6 *35:3 *35:5 0.513333
7 *35:2 *35:4 0.718667
8 *35:1 *35:3 4
9 *35:1 *35:2 0.166833
10 *101 *35:1 0.0513333
*END

*D_NET *36 0.00355295

*CONN
*P *102 O *C 19 0 *L 0
*I *117:NQ O *C 18 20 *L 0 *D invp3
*P *36 O *C 15 0 *L 0

*CAP
1 *102 3.14466e-05
2 *36:1 0.000212265
3 *36:2 0.000204403
4 *36:3 0.000314206
5 *36:4 0.00121856
6 *36:5 0.000314206
7 *36:6 0.00119497
8 *36:7 3.14466e-05
9 *36 3.14466e-05

*RES
1 *36:7 *36 0.0513333
2 *36:6 *117:NQ 4
3 *36:5 *36:7 4
4 *36:4 *36:6 1.95067
5 *36:3 *36:5 0.513333
6 *36:2 *36:4 0.0385
7 *36:1 *36:3 4
8 *36:1 *36:2 0.295167
9 *102 *36:1 0.0513333
*END

*D_NET *37 0.00565694

*CONN
*I *111:NQ O *C 99 13 *L 0 *D latsp2
*P *37 O *C 72 0 *L 0

*CAP
1 *37:1 0.000715411
2 *37:2 0.000715411
3 *37:3 0.00208161
4 *37:4 0.00208161
5 *37:5 3.14466e-05
6 *37 3.14466e-05

*RES
1 *37:5 *37 0.0513333
2 *37:4 *37:5 4
3 *37:3 *37:4 3.40083
4 *37:2 *37:3 4
5 *37:1 *37:2 1.16783
6 *111:NQ *37:1 4
*END

*D_NET *38 0.00436305

*CONN
*I *110:NQ O *C 82 13 *L 0 *D latsp2
*P *38 O *C 61 0 *L 0

*CAP
1 *38:1 0.000165095
2 *38:2 0.000165095
3 *38:3 0.00143467
4 *38:4 0.00143467
5 *38:5 0.000581763
6 *38 0.000581763

*RES
1 *38:5 *38 0.949667
2 *38:4 *38:5 4
3 *38:3 *38:4 2.68217
4 *38:2 *38:3 4
5 *38:1 *38:2 0.2695
6 *110:NQ *38:1 4
*END

*D_NET *39 0.00337411

*CONN
*I *110:Q O *C 79 13 *L 0 *D latsp2
*P *39 O *C 64 0 *L 0

*CAP
1 *39:1 0.000165095
2 *39:2 0.000165095
3 *39:3 0.00105026
4 *39:4 0.00105026
5 *39:5 0.0004717
6 *39 0.0004717

*RES
1 *39:5 *39 0.77
2 *39:4 *39:5 4
3 *39:3 *39:4 1.9635
4 *39:2 *39:3 4
5 *39:1 *39:2 0.2695
6 *110:Q *39:1 4
*END

*D_NET *40 0.00422822

*CONN
*I *111:Q O *C 96 13 *L 0 *D latsp2
*P *40 O *C 75 0 *L 0

*CAP
1 *40:1 0.000165095
2 *40:2 0.000275158
3 *40:3 0.000220126
4 *40:4 0.000110063
5 *40:5 0.00124933
6 *40:6 0.00124933
7 *40:7 0.000110063
8 *40:8 0.000220126
9 *40:9 0.000117925
10 *40:10 0.000259435
11 *40 0.000251573

*RES
1 *40:10 *40 0.410667
2 *40:9 *40:10 0.0128333
3 *40:8 *40:9 0.179667
4 *40:7 *40:8 0.179667
5 *40:6 *40:7 4
6 *40:5 *40:6 2.33567
7 *40:4 *40:5 4
8 *40:3 *40:4 0.179667
9 *40:2 *40:3 0.179667
10 *40:1 *40:2 0.2695
11 *111:Q *40:1 4
*END

*D_NET *41 0.00194877

*CONN
*I *132:Q O *C 4 13 *L 0 *D latrp1
*P *41 O *C 5 0 *L 0

*CAP
1 *132:Q 0.000219944
2 *41:1 0.000219944
3 *41:2 0.000385221
4 *41:3 0.000385221
5 *41:4 0.000337771
6 *41:5 0.000337771
7 *41:6 3.14466e-05
8 *41 3.14466e-05

*RES
1 *41:6 *41 0.0513333
2 *41:5 *41:6 4
3 *41:4 *41:5 0.551833
4 *41:3 *41:4 4